*Heading
** Job name: Job-1 Model name: Model-1
** Generated by: Abaqus/CAE 6.11-3
*Preprint, echo=NO, model=NO, history=NO, contact=NO
**
** PARTS
**
*Part, name=beam
*Node
      1,          0.5, 0.0500000007, 0.0500000007
      2,          0.5,           0., 0.0500000007
      3,          0.5, 0.0500000007,           0.
      4,          0.5,           0.,           0.
      5,  0.449999988, 0.0500000007, 0.0500000007
      6,  0.449999988,           0., 0.0500000007
      7,  0.449999988, 0.0500000007,           0.
      8,  0.449999988,           0.,           0.
      9,  0.400000006, 0.0500000007, 0.0500000007
     10,  0.400000006,           0., 0.0500000007
     11,  0.400000006, 0.0500000007,           0.
     12,  0.400000006,           0.,           0.
     13,  0.349999994, 0.0500000007, 0.0500000007
     14,  0.349999994,           0., 0.0500000007
     15,  0.349999994, 0.0500000007,           0.
     16,  0.349999994,           0.,           0.
     17,  0.300000012, 0.0500000007, 0.0500000007
     18,  0.300000012,           0., 0.0500000007
     19,  0.300000012, 0.0500000007,           0.
     20,  0.300000012,           0.,           0.
** ... 24 like lines cut
*Element, type=C3D8R
 1,  5,  6,  8,  7,  1,  2,  4,  3
 2,  9, 10, 12, 11,  5,  6,  8,  7
 3, 13, 14, 16, 15,  9, 10, 12, 11
 4, 17, 18, 20, 19, 13, 14, 16, 15
 5, 21, 22, 24, 23, 17, 18, 20, 19
 6, 25, 26, 28, 27, 21, 22, 24, 23
 7, 29, 30, 32, 31, 25, 26, 28, 27
 8, 33, 34, 36, 35, 29, 30, 32, 31
 9, 37, 38, 40, 39, 33, 34, 36, 35
10, 41, 42, 44, 43, 37, 38, 40, 39
*Nset, nset=_PickedSet9, internal, generate
  1,  44,   1
*Elset, elset=_PickedSet9, internal, generate
  1,  10,   1
*Nset, nset=base, generate
 41,  44,   1
*Nset, nset=forca, generate
 1,  4,  1
*Elset, elset=meio
 6,
*Nset, nset=midpoint, generate
 21,  24,   1
*Nset, nset=hourglass_probe, generate
 5,  8,  1
** Section: beam
*Solid Section, elset=_PickedSet9, controls=EC-1, material=aco
,
*End Part
**  
**
** ASSEMBLY
**
*Assembly, name=Assembly
**  
*Instance, name=beam-1, part=beam
*End Instance
**  
*End Assembly
** 
** ELEMENT CONTROLS
** 
*Section Controls, name=EC-1, DISTORTION CONTROL=NO, hourglass=ENHANCED, kinematic split=ORTHOGONAL
1., 1., 1., 0., 0.
*Amplitude, name=curva
             0.,              0.,           1e-05,              0.,    1.000001e-05,              1.,         7.5e-05,              1.
   7.500001e-05,              0.,            100.,              0.
** 
** MATERIALS
** 
*Material, name=aco
*Density
7850.,
*Elastic
 2e+11, 0.3
** 
** BOUNDARY CONDITIONS
** 
** Name: engaste Type: Symmetry/Antisymmetry/Encastre
*Boundary
beam-1.base, ENCASTRE
** ----------------------------------------------------------------
** 
** STEP: dinamico
** 
*Step, name=dinamico, nlgeom=NO
*Dynamic, Explicit, direct user control
1e-06, 0.0005
*Bulk Viscosity
0., 0.
** 
** LOADS
** 
** Name: forca   Type: Concentrated force
*Cload, amplitude=curva
beam-1.forca, 1, -100.
** 
** OUTPUT REQUESTS
** 
*Restart, write, number interval=1, time marks=NO
** 
** FIELD OUTPUT: F-Output-1
** 
*Output, field, number interval=250
*Node Output
A, RF, U, V
*Element Output, directions=YES
LE, PE, PEEQ, PEEQVAVG, PEVAVG, S, SVAVG
** 
** HISTORY OUTPUT: H-Output-1
** 
*Output, history, variable=PRESELECT
** 
** HISTORY OUTPUT: estado_ponta
** 
*Output, history, time interval=2e-06
*Node Output, nset=beam-1.forca
A1, A2, A3, AR1, AR2, AR3, CF1, CF2
CF3, CM1, CM2, CM3, RF1, RF2, RF3, RM1
RM2, RM3, U1, U2, U3, UR1, UR2, UR3
V1, V2, V3, VR1, VR2, VR3
** 
** HISTORY OUTPUT: hourglass_probe
** 
*Node Output, nset=beam-1.hourglass_probe
U1, U2, U3, UR1, UR2, UR3, V1, V2
V3, VR1, VR2, VR3
** 
** HISTORY OUTPUT: tensao
** 
*Element Output, elset=beam-1.meio
BICURV, CTSHR13, CTSHR23, E11, E12, E13, E22, E23, E33, EFABRIC11, EFABRIC12, EFABRIC13, EFABRIC22, EFABRIC23, EFABRIC33, ER11
ER12, ER13, ER22, ER23, ER33, INV3, LE11, LE12, LE13, LE22, LE23, LE33, LEP, MISES, NE11, NE12
NE13, NE22, NE23, NE33, NEP, PE11, PE12, PE13, PE22, PE23, PE33, PEEQ, PEEQT, PEMAG, PEP, PEQC1
PEQC2, PEQC3, PEQC4, PRESS, PS11, PS12, PS13, PS22, PS23, PS33, S11, S12, S13, S22, S23, S33
SE1, SE2, SE3, SFABRIC11, SFABRIC12, SFABRIC13, SFABRIC22, SFABRIC23, SFABRIC33, SK1, SK2, SK3, SP, SSAVG1, SSAVG2, SSAVG3
SSAVG4, SSAVG5, SSAVG6, TRESC, TRIAX, TSHR13, TSHR23, VE11, VE12, VE13, VE22, VE23, VE33, VEEQ, VS11, VS12
VS13, VS22, VS23, VS33
** 
** HISTORY OUTPUT: reacao_meio
** 
*End Step
