*Heading
** Job name: Job-1 Model name: Model-1
** Generated by: Abaqus/CAE 6.11-3
*Preprint, echo=NO, model=NO, history=NO, contact=NO
**
** PARTS
**
*Part, name=beam
*Node
      1,          0.5, 0.0500000007, 0.0500000007
      2,          0.5, 0.0437499993, 0.0500000007
      3,          0.5, 0.0375000015, 0.0500000007
      4,          0.5,      0.03125, 0.0500000007
      5,          0.5, 0.0250000004, 0.0500000007
      6,          0.5, 0.0187500007, 0.0500000007
      7,          0.5, 0.0125000002, 0.0500000007
      8,          0.5, 0.00625000009, 0.0500000007
      9,          0.5,           0., 0.0500000007
     10,          0.5, 0.0500000007, 0.0437499993
     11,          0.5, 0.0437499993, 0.0437499993
     12,          0.5, 0.0375000015, 0.0437499993
     13,          0.5,      0.03125, 0.0437499993
     14,          0.5, 0.0250000004, 0.0437499993
     15,          0.5, 0.0187500007, 0.0437499993
     16,          0.5, 0.0125000002, 0.0437499993
     17,          0.5, 0.00625000009, 0.0437499993
     18,          0.5,           0., 0.0437499993
     19,          0.5, 0.0500000007, 0.0375000015
     20,          0.5, 0.0437499993, 0.0375000015
** ... 6541 like lines cut
*Element, type=C3D8R
   1,   82,   83,   92,   91,    1,    2,   11,   10
   2,   83,   84,   93,   92,    2,    3,   12,   11
   3,   84,   85,   94,   93,    3,    4,   13,   12
   4,   85,   86,   95,   94,    4,    5,   14,   13
   5,   86,   87,   96,   95,    5,    6,   15,   14
   6,   87,   88,   97,   96,    6,    7,   16,   15
   7,   88,   89,   98,   97,    7,    8,   17,   16
   8,   89,   90,   99,   98,    8,    9,   18,   17
   9,   91,   92,  101,  100,   10,   11,   20,   19
  10,   92,   93,  102,  101,   11,   12,   21,   20
  11,   93,   94,  103,  102,   12,   13,   22,   21
  12,   94,   95,  104,  103,   13,   14,   23,   22
  13,   95,   96,  105,  104,   14,   15,   24,   23
  14,   96,   97,  106,  105,   15,   16,   25,   24
  15,   97,   98,  107,  106,   16,   17,   26,   25
  16,   98,   99,  108,  107,   17,   18,   27,   26
  17,  100,  101,  110,  109,   19,   20,   29,   28
  18,  101,  102,  111,  110,   20,   21,   30,   29
  19,  102,  103,  112,  111,   21,   22,   31,   30
  20,  103,  104,  113,  112,   22,   23,   32,   31
** ... 5100 like lines cut
*Nset, nset=_PickedSet2, internal, generate
    1,  6561,     1
*Elset, elset=_PickedSet2, internal, generate
    1,  5120,     1
*Nset, nset=lock, generate
 6481,  6561,     1
*Nset, nset=load, generate
  1,  81,   1
*Nset, nset=load-tip
  1,  9, 73, 81
*Nset, nset=load-edges
  2,  3,  4,  5,  6,  7,  8, 10, 18, 19, 27, 28, 36, 37, 45, 46
 54, 55, 63, 64, 72, 74, 75, 76, 77, 78, 79, 80
*Nset, nset=load-inner
 11, 12, 13, 14, 15, 16, 17, 20, 21, 22, 23, 24, 25, 26, 29, 30
 31, 32, 33, 34, 35, 38, 39, 40, 41, 42, 43, 44, 47, 48, 49, 50
 51, 52, 53, 56, 57, 58, 59, 60, 61, 62, 65, 66, 67, 68, 69, 70
 71,
** Section: beam-section
*Solid Section, elset=_PickedSet2, controls=EC-1, material=steel
,
*End Part
**  
**
** ASSEMBLY
**
*Assembly, name=Assembly
**  
*Instance, name=beam-1, part=beam
*End Instance
**  
*End Assembly
** 
** ELEMENT CONTROLS
** 
*Section Controls, name=EC-1, DISTORTION CONTROL=NO, ELEMENT DELETION=NO, kinematic split=CENTROID, hourglass=STIFFNESS
0., 1., 1., 0., 0.
*Amplitude, name=load
             0.,              0.,           1e-05,              0.,    1.000001e-05,              1.,         7.5e-05,              1.
   7.500001e-05,              0.,            100.,              0.
** 
** MATERIALS
** 
*Material, name=steel
*Density
7850.,
*Elastic
 2e+11, 0.3
** 
** BOUNDARY CONDITIONS
** 
** Name: encastre Type: Symmetry/Antisymmetry/Encastre
*Boundary
beam-1.lock, PINNED
** ----------------------------------------------------------------
** 
** STEP: dynamic-explicit
** 
*Step, name=dynamic-explicit, nlgeom=NO
*Dynamic, Explicit, direct user control
1.25e-07, 0.0005
*Bulk Viscosity
0., 0.
** 
** LOADS
** 
** Name: load-edges   Type: Concentrated force
*Cload, amplitude=load
beam-1.load-edges, 1, -31.25
** Name: load-inner   Type: Concentrated force
*Cload, amplitude=load
beam-1.load-inner, 1, -62.5
** Name: load-tips   Type: Concentrated force
*Cload, amplitude=load
beam-1.load-tip, 1, -15.625
** 
** OUTPUT REQUESTS
** 
*Restart, write, number interval=1, time marks=NO
** 
** FIELD OUTPUT: F-Output-1
** 
*Output, field, variable=PRESELECT
** 
** HISTORY OUTPUT: H-Output-1
** 
*Output, history, variable=PRESELECT
** 
** HISTORY OUTPUT: H-Output-2
** 
*Output, history, time interval=2e-06
*Node Output, nset=beam-1.load
A1, A2, A3, CF1, U1, U2, U3, V1
V2, V3
*End Step
