*Heading
** Job name: Job-1 Model name: Model-1
** Generated by: Abaqus/CAE 6.12-1
*Preprint, echo=NO, model=NO, history=NO, contact=NO
**
** PARTS
**
*Part, name=Part-1
*Node
      1,          0.5, 0.0500000007, 0.0500000007
      2,          0.5, 0.0375000015, 0.0500000007
      3,          0.5, 0.0250000004, 0.0500000007
      4,          0.5, 0.0125000002, 0.0500000007
      5,          0.5,           0., 0.0500000007
      6,          0.5, 0.0500000007, 0.0375000015
      7,          0.5, 0.0375000015, 0.0375000015
      8,          0.5, 0.0250000004, 0.0375000015
      9,          0.5, 0.0125000002, 0.0375000015
     10,          0.5,           0., 0.0375000015
     11,          0.5, 0.0500000007, 0.0250000004
     12,          0.5, 0.0375000015, 0.0250000004
     13,          0.5, 0.0250000004, 0.0250000004
     14,          0.5, 0.0125000002, 0.0250000004
     15,          0.5,           0., 0.0250000004
     16,          0.5, 0.0500000007, 0.0125000002
     17,          0.5, 0.0375000015, 0.0125000002
     18,          0.5, 0.0250000004, 0.0125000002
     19,          0.5, 0.0125000002, 0.0125000002
     20,          0.5,           0., 0.0125000002
** ... 1005 like lines cut
*Element, type=C3D8R
  1,   26,   27,   32,   31,    1,    2,    7,    6
  2,   27,   28,   33,   32,    2,    3,    8,    7
  3,   28,   29,   34,   33,    3,    4,    9,    8
  4,   29,   30,   35,   34,    4,    5,   10,    9
  5,   31,   32,   37,   36,    6,    7,   12,   11
  6,   32,   33,   38,   37,    7,    8,   13,   12
  7,   33,   34,   39,   38,    8,    9,   14,   13
  8,   34,   35,   40,   39,    9,   10,   15,   14
  9,   36,   37,   42,   41,   11,   12,   17,   16
 10,   37,   38,   43,   42,   12,   13,   18,   17
 11,   38,   39,   44,   43,   13,   14,   19,   18
 12,   39,   40,   45,   44,   14,   15,   20,   19
 13,   41,   42,   47,   46,   16,   17,   22,   21
 14,   42,   43,   48,   47,   17,   18,   23,   22
 15,   43,   44,   49,   48,   18,   19,   24,   23
 16,   44,   45,   50,   49,   19,   20,   25,   24
 17,   51,   52,   57,   56,   26,   27,   32,   31
 18,   52,   53,   58,   57,   27,   28,   33,   32
 19,   53,   54,   59,   58,   28,   29,   34,   33
 20,   54,   55,   60,   59,   29,   30,   35,   34
** ... 620 like lines cut
*Nset, nset=Set-1, generate
    1,  1025,     1
*Elset, elset=Set-1, generate
   1,  640,    1
*Nset, nset=engaste, generate
 1001,  1025,     1
*Nset, nset=centro
  7,  8,  9, 12, 13, 14, 17, 18, 19
*Nset, nset=cantos
  1,  5, 21, 25
*Nset, nset=bordas
  2,  3,  4,  6, 10, 11, 15, 16, 20, 22, 23, 24
*Nset, nset=engaste-centro
 1013,
*Nset, nset=engaste-resto
 1001, 1002, 1003, 1004, 1005, 1006, 1007, 1008, 1009, 1010, 1011, 1012, 1014, 1015, 1016, 1017
 1018, 1019, 1020, 1021, 1022, 1023, 1024, 1025
*Nset, nset=face-livre, generate
  1,  25,   1
*Elset, elset=secao-ponta, generate
  1,  16,   1
*Elset, elset=quarta-secao, generate
 225,  240,    1
** Section: rubber
*Solid Section, elset=Set-1, controls=EC-1, material=rubber
,
*End Part
**  
**
** ASSEMBLY
**
*Assembly, name=Assembly
**  
*Instance, name=Part-1-1, part=Part-1
*End Instance
**  
*End Assembly
** 
** ELEMENT CONTROLS
** 
*Section Controls, name=EC-1, DISTORTION CONTROL=NO, hourglass=STIFFNESS
0., 1., 1., 0., 0.
*Amplitude, name=reta
             0.,              0.,           0.005,              1.,            0.01,              1.,            0.02,              1.
** 
** MATERIALS
** 
*Material, name=rubber
*Density
920.,
*Hyperelastic, neo hooke
431034., 2.4e-07
** 
** BOUNDARY CONDITIONS
** 
** Name: apoio Type: Symmetry/Antisymmetry/Encastre
*Boundary
Part-1-1.engaste-resto, YSYMM
** Name: engaste Type: Symmetry/Antisymmetry/Encastre
*Boundary
Part-1-1.engaste-centro, PINNED
** ----------------------------------------------------------------
** 
** STEP: explicito
** 
*Step, name=explicito
*Dynamic, Explicit, direct user control
1e-05, 0.01
*Bulk Viscosity
0., 0.
** 
** LOADS
** 
** Name: carga-bordas   Type: Concentrated force
*Cload, amplitude=reta
Part-1-1.bordas, 1, 100.
** Name: carga-cantos   Type: Concentrated force
*Cload, amplitude=reta
Part-1-1.cantos, 1, 50.
** Name: carga-meio   Type: Concentrated force
*Cload, amplitude=reta
Part-1-1.centro, 1, 200.
** 
** OUTPUT REQUESTS
** 
*Restart, write, number interval=1, time marks=NO
** 
** FIELD OUTPUT: F-Output-1
** 
*Output, field, variable=PRESELECT
** 
** FIELD OUTPUT: F-Output-2
** 
*Output, field, number interval=200
*Node Output
A, U, V
*Element Output, directions=YES
S, 
** 
** HISTORY OUTPUT: H-Output-2
** 
*Output, history
*Incrementation Output
DT, 
** 
** HISTORY OUTPUT: H-Output-3
** 
*Node Output, nset=Part-1-1.face-livre
A1, A2, A3, AR1, AR2, AR3, U1, U2
U3, UR1, UR2, UR3, V1, V2, V3, VR1
VR2, VR3
** 
** HISTORY OUTPUT: H-Output-4
** 
*Element Output, elset=Part-1-1.quarta-secao
INV3, PRESS, S11, S12, S13, S22, S23, S33, SP, TRESC
** 
** HISTORY OUTPUT: H-Output-5
** 
*Element Output, elset=Part-1-1.secao-ponta
INV3, PRESS, S11, S12, S13, S22, S23, S33, SP, TRESC
** 
** HISTORY OUTPUT: H-Output-1
** 
*Output, history, variable=PRESELECT
*End Step
