*Heading
** Job name: analise Model name: Model-1
** Generated by: Abaqus/CAE 6.11-3
*Preprint, echo=NO, model=NO, history=NO, contact=NO
**
** PARTS
**
*Part, name=beam
*Node
      1,          20.,           1.,           1.
      2,          20.,          0.5,           1.
      3,          20.,           0.,           1.
      4,          20.,           1.,          0.5
      5,          20.,          0.5,          0.5
      6,          20.,           0.,          0.5
      7,          20.,           1.,           0.
      8,          20.,          0.5,           0.
      9,          20.,           0.,           0.
     10,         19.5,           1.,           1.
     11,         19.5,          0.5,           1.
     12,         19.5,           0.,           1.
     13,         19.5,           1.,          0.5
     14,         19.5,          0.5,          0.5
     15,         19.5,           0.,          0.5
     16,         19.5,           1.,           0.
     17,         19.5,          0.5,           0.
     18,         19.5,           0.,           0.
     19,          19.,           1.,           1.
     20,          19.,          0.5,           1.
** ... 349 like lines cut
*Element, type=C3D8R
  1,  10,  11,  14,  13,   1,   2,   5,   4
  2,  11,  12,  15,  14,   2,   3,   6,   5
  3,  13,  14,  17,  16,   4,   5,   8,   7
  4,  14,  15,  18,  17,   5,   6,   9,   8
  5,  19,  20,  23,  22,  10,  11,  14,  13
  6,  20,  21,  24,  23,  11,  12,  15,  14
  7,  22,  23,  26,  25,  13,  14,  17,  16
  8,  23,  24,  27,  26,  14,  15,  18,  17
  9,  28,  29,  32,  31,  19,  20,  23,  22
 10,  29,  30,  33,  32,  20,  21,  24,  23
 11,  31,  32,  35,  34,  22,  23,  26,  25
 12,  32,  33,  36,  35,  23,  24,  27,  26
 13,  37,  38,  41,  40,  28,  29,  32,  31
 14,  38,  39,  42,  41,  29,  30,  33,  32
 15,  40,  41,  44,  43,  31,  32,  35,  34
 16,  41,  42,  45,  44,  32,  33,  36,  35
 17,  46,  47,  50,  49,  37,  38,  41,  40
 18,  47,  48,  51,  50,  38,  39,  42,  41
 19,  49,  50,  53,  52,  40,  41,  44,  43
 20,  50,  51,  54,  53,  41,  42,  45,  44
** ... 140 like lines cut
*Nset, nset=_PickedSet12, internal, generate
   1,  369,    1
*Elset, elset=_PickedSet12, internal, generate
   1,  160,    1
*Nset, nset=carga4
 5,
*Nset, nset=carga2, generate
 2,  8,  2
*Nset, nset=carga1
 1, 3, 7, 9
*Elset, elset=elemento20, generate
 77,  80,   1
*Elset, elset=elementos-ponta, generate
 1,  4,  1
*Nset, nset=engaste, generate
 361,  369,    1
*Nset, nset=fixed-center-node
 365,
*Nset, nset=no-meio, generate
 181,  189,    1
** Section: beam-section
*Solid Section, elset=_PickedSet12, controls=EC-1, material=mat_viga
,
*End Part
**  
**
** ASSEMBLY
**
*Assembly, name=Assembly
**  
*Instance, name=beam-1, part=beam
*End Instance
**  
*End Assembly
** 
** ELEMENT CONTROLS
** 
*Section Controls, name=EC-1, DISTORTION CONTROL=NO, hourglass=STIFFNESS
0., 1., 1., 0., 0.
*Amplitude, name=constante
             0.,              1.,            100.,              1.
** 
** MATERIALS
** 
*Material, name=mat_viga
*Density
 0.00074,
*Elastic
 3e+07,0.
** 
** BOUNDARY CONDITIONS
** 
** Name: encastre Type: Symmetry/Antisymmetry/Encastre
*Boundary
beam-1.engaste, ENCASTRE
** ----------------------------------------------------------------
** 
** STEP: dinamico-explicito
** 
*Step, name=dinamico-explicito, nlgeom=NO
*Dynamic, Explicit, direct user control
1e-06, 0.0002
*Bulk Viscosity
0., 0.
** 
** LOADS
** 
** Name: carga1   Type: Concentrated force
*Cload, amplitude=constante
beam-1.carga1, 1, -6.25
** Name: carga2   Type: Concentrated force
*Cload, amplitude=constante
beam-1.carga2, 1, -12.5
** Name: carga4   Type: Concentrated force
*Cload, amplitude=constante
beam-1.carga4, 1, -25.
** 
** OUTPUT REQUESTS
** 
*Restart, write, number interval=1, time marks=NO
** 
** FIELD OUTPUT: F-Output-1
** 
*Output, field, number interval=200
*Element Output, elset=beam-1.elemento20, directions=YES
S, SVAVG
** 
** HISTORY OUTPUT: ponto-aplicacao
** 
*Output, history
*Node Output, nset=beam-1.carga1
A1, U1, V1
** 
** HISTORY OUTPUT: tensao-elemento-20
** 
*Element Output, elset=beam-1.elemento20
E11, S11
** 
** HISTORY OUTPUT: forcas-internas-pto-aplicacao
** 
*Element Output, elset=beam-1.elementos-ponta
NFORC, 
** 
** HISTORY OUTPUT: ponto-fixo
** 
*Node Output, nset=beam-1.fixed-center-node
RF1, 
** 
** HISTORY OUTPUT: no-meio
** 
*Node Output, nset=beam-1.no-meio
A1, U1, V1
** 
** HISTORY OUTPUT: H-Output-1
** 
*Output, history, variable=PRESELECT
*End Step
