*Heading
** Job name: Job-1 Model name: Model-1
** Generated by: Abaqus/CAE 6.11-3
*Preprint, echo=NO, model=NO, history=NO, contact=NO
**
** PARTS
**
*Part, name=Part-1
*Node
      1,          0.5, 0.0500000007, 0.0500000007
      2,          0.5,           0., 0.0500000007
      3,          0.5, 0.0500000007,           0.
      4,          0.5,           0.,           0.
      5,  0.449999988, 0.0500000007, 0.0500000007
      6,  0.449999988,           0., 0.0500000007
      7,  0.449999988, 0.0500000007,           0.
      8,  0.449999988,           0.,           0.
      9,  0.400000006, 0.0500000007, 0.0500000007
     10,  0.400000006,           0., 0.0500000007
     11,  0.400000006, 0.0500000007,           0.
     12,  0.400000006,           0.,           0.
     13,  0.349999994, 0.0500000007, 0.0500000007
     14,  0.349999994,           0., 0.0500000007
     15,  0.349999994, 0.0500000007,           0.
     16,  0.349999994,           0.,           0.
     17,  0.300000012, 0.0500000007, 0.0500000007
     18,  0.300000012,           0., 0.0500000007
     19,  0.300000012, 0.0500000007,           0.
     20,  0.300000012,           0.,           0.
** ... 24 like lines cut
*Element, type=C3D8R
 1,  5,  6,  8,  7,  1,  2,  4,  3
 2,  9, 10, 12, 11,  5,  6,  8,  7
 3, 13, 14, 16, 15,  9, 10, 12, 11
 4, 17, 18, 20, 19, 13, 14, 16, 15
 5, 21, 22, 24, 23, 17, 18, 20, 19
 6, 25, 26, 28, 27, 21, 22, 24, 23
 7, 29, 30, 32, 31, 25, 26, 28, 27
 8, 33, 34, 36, 35, 29, 30, 32, 31
 9, 37, 38, 40, 39, 33, 34, 36, 35
10, 41, 42, 44, 43, 37, 38, 40, 39
*Nset, nset=_PickedSet2, internal, generate
  1,  44,   1
*Elset, elset=_PickedSet2, internal, generate
  1,  10,   1
*Nset, nset=engaste, generate
 41,  44,   1
*Nset, nset=forca, generate
 1,  4,  1
*Elset, elset=meio
 6,
*Nset, nset=no-meio, generate
 21,  24,   1
** Section: aco
*Solid Section, elset=_PickedSet2, controls=EC-1, material=aco
,
*End Part
**  
**
** ASSEMBLY
**
*Assembly, name=Assembly
**  
*Instance, name=Part-1-1, part=Part-1
*End Instance
**  
*End Assembly
** 
** ELEMENT CONTROLS
** 
*Section Controls, name=EC-1, DISTORTION CONTROL=NO, hourglass=STIFFNESS
0., 1., 1., 0., 0.
*Amplitude, name=velocidade
             0.,              0.,           0.001,              2.
** 
** MATERIALS
** 
*Material, name=aco
*Density
7850.,
*Elastic
 2e+11, 0.3
** 
** BOUNDARY CONDITIONS
** 
** Name: engaste Type: Symmetry/Antisymmetry/Encastre
*Boundary
Part-1-1.engaste, ENCASTRE
** ----------------------------------------------------------------
** 
** STEP: dinamico
** 
*Step, name=dinamico, nlgeom=NO
*Dynamic, Explicit, direct user control
1e-06, 0.0005
*Bulk Viscosity
0., 0.
** 
** BOUNDARY CONDITIONS
** 
** Name: velocidade-prescrita Type: Velocity/Angular velocity
*Boundary, amplitude=velocidade, type=VELOCITY
Part-1-1.forca, 1, 1, 1e-05
** 
** OUTPUT REQUESTS
** 
*Restart, write, number interval=1, time marks=NO
** 
** FIELD OUTPUT: F-Output-1
** 
*Output, field, variable=PRESELECT
** 
** HISTORY OUTPUT: H-Output-1
** 
*Output, history, variable=PRESELECT
** 
** HISTORY OUTPUT: deslocamento
** 
*Output, history, time interval=2e-06
*Node Output, nset=Part-1-1.forca
A1, U1, V1
** 
** HISTORY OUTPUT: tensao
** 
*Element Output, elset=Part-1-1.meio
NFORC, S11
** 
** HISTORY OUTPUT: aceleracao-meio
** 
*Node Output, nset=Part-1-1.no-meio
A1, U1, V1
*End Step
