*Heading
** Job name: beam_100x5x5 Model name: Model-1
** Generated by: Abaqus/CAE Version 6.8-1
*Preprint, echo=NO, model=NO, history=NO, contact=NO
**
** PARTS
**
*Part, name=beam
*Node
      1,  0.200000003, 0.00999999978, 0.00999999978
      2,  0.200000003, 0.00800000038, 0.00999999978
      3,  0.200000003, 0.00600000005, 0.00999999978
      4,  0.200000003, 0.00400000019, 0.00999999978
      5,  0.200000003, 0.00200000009, 0.00999999978
      6,  0.200000003,           0., 0.00999999978
      7,  0.200000003, 0.00999999978, 0.00800000038
      8,  0.200000003, 0.00800000038, 0.00800000038
      9,  0.200000003, 0.00600000005, 0.00800000038
     10,  0.200000003, 0.00400000019, 0.00800000038
     11,  0.200000003, 0.00200000009, 0.00800000038
     12,  0.200000003,           0., 0.00800000038
     13,  0.200000003, 0.00999999978, 0.00600000005
     14,  0.200000003, 0.00800000038, 0.00600000005
     15,  0.200000003, 0.00600000005, 0.00600000005
     16,  0.200000003, 0.00400000019, 0.00600000005
     17,  0.200000003, 0.00200000009, 0.00600000005
     18,  0.200000003,           0., 0.00600000005
     19,  0.200000003, 0.00999999978, 0.00400000019
     20,  0.200000003, 0.00800000038, 0.00400000019
** ... 3616 like lines cut
*Element, type=C3D8
   1,   37,   38,   44,   43,    1,    2,    8,    7
   2,   38,   39,   45,   44,    2,    3,    9,    8
   3,   39,   40,   46,   45,    3,    4,   10,    9
   4,   40,   41,   47,   46,    4,    5,   11,   10
   5,   41,   42,   48,   47,    5,    6,   12,   11
   6,   43,   44,   50,   49,    7,    8,   14,   13
   7,   44,   45,   51,   50,    8,    9,   15,   14
   8,   45,   46,   52,   51,    9,   10,   16,   15
   9,   46,   47,   53,   52,   10,   11,   17,   16
  10,   47,   48,   54,   53,   11,   12,   18,   17
  11,   49,   50,   56,   55,   13,   14,   20,   19
  12,   50,   51,   57,   56,   14,   15,   21,   20
  13,   51,   52,   58,   57,   15,   16,   22,   21
  14,   52,   53,   59,   58,   16,   17,   23,   22
  15,   53,   54,   60,   59,   17,   18,   24,   23
  16,   55,   56,   62,   61,   19,   20,   26,   25
  17,   56,   57,   63,   62,   20,   21,   27,   26
  18,   57,   58,   64,   63,   21,   22,   28,   27
  19,   58,   59,   65,   64,   22,   23,   29,   28
  20,   59,   60,   66,   65,   23,   24,   30,   29
** ... 2480 like lines cut
*Nset, nset=_PickedSet2, internal, generate
    1,  3636,     1
*Elset, elset=_PickedSet2, internal, generate
    1,  2500,     1
** Section: Section-1
*Solid Section, elset=_PickedSet2, material=elastic

*End Part
**  
**
** ASSEMBLY
**
*Assembly, name=Assembly
**  
*Instance, name=beam-1, part=beam
*End Instance
**  
*Nset, nset=_PickedSet4, internal, instance=beam-1, generate
 3601,  3636,     1
*Elset, elset=_PickedSet4, internal, instance=beam-1, generate
 2476,  2500,     1
*Nset, nset=_PickedSet5, internal, instance=beam-1
 31,
*End Assembly
** 
** MATERIALS
** 
*Material, name=elastic
*Density
7800.,
*Elastic
 2e+11, 0.3
** ----------------------------------------------------------------
** 
** STEP: Step-1
** 
*Step, name=Step-1
*Static
1., 1., 1e-05, 1.
** 
** BOUNDARY CONDITIONS
** 
** Name: encastre Type: Displacement/Rotation
*Boundary
_PickedSet4, 1, 1
_PickedSet4, 2, 2
_PickedSet4, 3, 3
_PickedSet4, 4, 4
_PickedSet4, 5, 5
_PickedSet4, 6, 6
** 
** LOADS
** 
** Name: load   Type: Concentrated force
*Cload
_PickedSet5, 2, -12.5
** 
** OUTPUT REQUESTS
** 
*Restart, write, frequency=0
** 
** FIELD OUTPUT: F-Output-1, F-Output-2
** 
*Output, field, variable=PRESELECT
** 
** HISTORY OUTPUT: H-Output-1
** 
*Output, history, variable=PRESELECT
*End Step
