*Heading
** Job name: beam_40x2x2 Model name: Model-1
** Generated by: Abaqus/CAE Version 6.8-1
*Preprint, echo=NO, model=NO, history=NO, contact=NO
**
** PARTS
**
*Part, name=beam
*Node
      1,  0.200000003, 0.00999999978, 0.00999999978
      2,  0.200000003, 0.00499999989, 0.00999999978
      3,  0.200000003,           0., 0.00999999978
      4,  0.200000003, 0.00999999978, 0.00499999989
      5,  0.200000003, 0.00499999989, 0.00499999989
      6,  0.200000003,           0., 0.00499999989
      7,  0.200000003, 0.00999999978,           0.
      8,  0.200000003, 0.00499999989,           0.
      9,  0.200000003,           0.,           0.
     10,  0.194999993, 0.00999999978, 0.00999999978
     11,  0.194999993, 0.00499999989, 0.00999999978
     12,  0.194999993,           0., 0.00999999978
     13,  0.194999993, 0.00999999978, 0.00499999989
     14,  0.194999993, 0.00499999989, 0.00499999989
     15,  0.194999993,           0., 0.00499999989
     16,  0.194999993, 0.00999999978,           0.
     17,  0.194999993, 0.00499999989,           0.
     18,  0.194999993,           0.,           0.
     19,  0.189999998, 0.00999999978, 0.00999999978
     20,  0.189999998, 0.00499999989, 0.00999999978
** ... 349 like lines cut
*Element, type=C3D8
  1,  10,  11,  14,  13,   1,   2,   5,   4
  2,  11,  12,  15,  14,   2,   3,   6,   5
  3,  13,  14,  17,  16,   4,   5,   8,   7
  4,  14,  15,  18,  17,   5,   6,   9,   8
  5,  19,  20,  23,  22,  10,  11,  14,  13
  6,  20,  21,  24,  23,  11,  12,  15,  14
  7,  22,  23,  26,  25,  13,  14,  17,  16
  8,  23,  24,  27,  26,  14,  15,  18,  17
  9,  28,  29,  32,  31,  19,  20,  23,  22
 10,  29,  30,  33,  32,  20,  21,  24,  23
 11,  31,  32,  35,  34,  22,  23,  26,  25
 12,  32,  33,  36,  35,  23,  24,  27,  26
 13,  37,  38,  41,  40,  28,  29,  32,  31
 14,  38,  39,  42,  41,  29,  30,  33,  32
 15,  40,  41,  44,  43,  31,  32,  35,  34
 16,  41,  42,  45,  44,  32,  33,  36,  35
 17,  46,  47,  50,  49,  37,  38,  41,  40
 18,  47,  48,  51,  50,  38,  39,  42,  41
 19,  49,  50,  53,  52,  40,  41,  44,  43
 20,  50,  51,  54,  53,  41,  42,  45,  44
** ... 140 like lines cut
*Nset, nset=_PickedSet2, internal, generate
   1,  369,    1
*Elset, elset=_PickedSet2, internal, generate
   1,  160,    1
** Section: Section-1
*Solid Section, elset=_PickedSet2, material=elastic

*End Part
**  
**
** ASSEMBLY
**
*Assembly, name=Assembly
**  
*Instance, name=beam-1, part=beam
*End Instance
**  
*Nset, nset=_PickedSet4, internal, instance=beam-1, generate
 361,  369,    1
*Elset, elset=_PickedSet4, internal, instance=beam-1, generate
 157,  160,    1
*Nset, nset=_PickedSet5, internal, instance=beam-1
 7,
*End Assembly
** 
** MATERIALS
** 
*Material, name=elastic
*Density
7800.,
*Elastic
 2e+11, 0.3
** ----------------------------------------------------------------
** 
** STEP: Step-1
** 
*Step, name=Step-1
*Static
1., 1., 1e-05, 1.
** 
** BOUNDARY CONDITIONS
** 
** Name: encastre Type: Displacement/Rotation
*Boundary
_PickedSet4, 1, 1
_PickedSet4, 2, 2
_PickedSet4, 3, 3
_PickedSet4, 4, 4
_PickedSet4, 5, 5
_PickedSet4, 6, 6
** 
** LOADS
** 
** Name: load   Type: Concentrated force
*Cload
_PickedSet5, 2, -12.5
** 
** OUTPUT REQUESTS
** 
*Restart, write, frequency=0
** 
** FIELD OUTPUT: F-Output-1, F-Output-2
** 
*Output, field, variable=PRESELECT
** 
** HISTORY OUTPUT: H-Output-1
** 
*Output, history, variable=PRESELECT
*End Step
