*HEADING
PROBLEMA 1 : 1 CUBO UNITARIO, POISSON = 0, F = -50 kN
*PREPRINT,ECHO=YES,HISTORY=NO,MODEL=NO
*RESTART, WRITE
*NODE
	1,   0.0,  0.0,   0.0
	2,   0.0,  0.0,   0.1
	3,   1.0,  0.0,   0.1
	4,   1.0,  0.0,   0.0
	5,   0.0,  0.2,   0.0
	6,   0.0,  0.2,   0.1
	7,   1.0,  0.2,   0.1
	8,   1.0,  0.2,   0.0
	9,   2.0,  0.0,   0.1
	10,  2.0,  0.0,   0.0
	11,  2.0,  0.2,   0.1
	12,  2.0,  0.2,   0.0
	13,  3.0,  0.0,   0.1
	14,  3.0,  0.0,   0.0
	15,  3.0,  0.2,   0.1
	16,  3.0,  0.2,   0.0
	17,  4.0,  0.0,   0.1
	18,  4.0,  0.0,   0.0
	19,  4.0,  0.2,   0.1
	20,  4.0,  0.2,   0.0
*ELEMENT,TYPE=C3D8, ELSET=EALL
	1,   1 ,  2 ,  3 ,  4 ,  5 ,  6 ,  7 ,  8
	2,   4 ,  3 ,  9 ,  10,  8 ,  7 ,  11,  12
	3,   10,  9 ,  13,  14,  12,  11,  15,  16
	4,   14,  13,  17,  18,  16,  15,  19,  20
*SOLID SECTION,MATERIAL=A1, ELSET=EALL
*MATERIAL,NAME=A1
*ELASTIC,TYPE=ISOTROPIC
 1E7,0.3
*Nset, nset=loads
17,20,1
*BOUNDARY
 1,1,6
 2,1,6
 5,1,6
 6,1,6
*STEP
*STATIC
*Cload
loads, 1, 1.0
*NODE PRINT
 U,COORD
*NODE PRINT
 RF,CF 
*EL PRINT
 S,
 COORD,
 E,
 LOADS,
**analytical results
**SOFM        SOF1        SOF2        SOF3        
**3464.       2000.       2000.       2000.
**SOMM        SOM1        SOM2        SOM3    
**2828.       0.0         2000.      -2000.    
**SOAREA      SOCF1       SOCF2       SOCF3   
**2.000      0.6667      0.6667      0.1667    
*END STEP
