 Abaqus/Standard Version 6.8-1                  DATE 22-May-2012 TIME 14:20:58
 SUMMARY OF JOB INFORMATION:
 STEP  INC ATT SEVERE EQUIL TOTAL  TOTAL      STEP       INC OF       DOF    IF
               DISCON ITERS ITERS  TIME/    TIME/LPF    TIME/LPF    MONITOR RIKS
               ITERS               FREQ
   1     1   1     0     1     1  1.00       1.00       1.000     
                          
 THE ANALYSIS HAS COMPLETED SUCCESSFULLY
