*Heading
** Job name: Job-1 Model name: Model-1
** Generated by: Abaqus/CAE 6.11-3
*Preprint, echo=NO, model=NO, history=NO, contact=NO
**
** PARTS
**
*Part, name=beam
*Node
      1,          0.5, 0.0500000007, 0.0500000007
      2,          0.5,           0., 0.0500000007
      3,          0.5, 0.0500000007,           0.
      4,          0.5,           0.,           0.
      5,  0.449999988, 0.0500000007, 0.0500000007
      6,  0.449999988,           0., 0.0500000007
      7,  0.449999988, 0.0500000007,           0.
      8,  0.449999988,           0.,           0.
      9,  0.400000006, 0.0500000007, 0.0500000007
     10,  0.400000006,           0., 0.0500000007
     11,  0.400000006, 0.0500000007,           0.
     12,  0.400000006,           0.,           0.
     13,  0.349999994, 0.0500000007, 0.0500000007
     14,  0.349999994,           0., 0.0500000007
     15,  0.349999994, 0.0500000007,           0.
     16,  0.349999994,           0.,           0.
     17,  0.300000012, 0.0500000007, 0.0500000007
     18,  0.300000012,           0., 0.0500000007
     19,  0.300000012, 0.0500000007,           0.
     20,  0.300000012,           0.,           0.
** ... 24 like lines cut
*Element, type=C3D8R
 1,  5,  6,  8,  7,  1,  2,  4,  3
 2,  9, 10, 12, 11,  5,  6,  8,  7
 3, 13, 14, 16, 15,  9, 10, 12, 11
 4, 17, 18, 20, 19, 13, 14, 16, 15
 5, 21, 22, 24, 23, 17, 18, 20, 19
 6, 25, 26, 28, 27, 21, 22, 24, 23
 7, 29, 30, 32, 31, 25, 26, 28, 27
 8, 33, 34, 36, 35, 29, 30, 32, 31
 9, 37, 38, 40, 39, 33, 34, 36, 35
10, 41, 42, 44, 43, 37, 38, 40, 39
*Nset, nset=_PickedSet2, internal, generate
  1,  44,   1
*Elset, elset=_PickedSet2, internal, generate
  1,  10,   1
*Nset, nset=encastre, generate
 41,  44,   1
*Elset, elset=tip
 1,
*Elset, elset=middle
 6,
*Nset, nset=tip-nodes, generate
 1,  4,  1
*Nset, nset=center-loads, generate
  5,  11,   2
*Nset, nset=edge-loads
 13, 15
*Nset, nset=tip-top
 1, 3
** Section: beam
*Solid Section, elset=_PickedSet2, controls=EC-1, material=natural-rubber
,
*End Part
**  
**
** ASSEMBLY
**
*Assembly, name=Assembly
**  
*Instance, name=beam-1, part=beam
*End Instance
**  
*End Assembly
** 
** ELEMENT CONTROLS
** 
*Section Controls, name=EC-1, DISTORTION CONTROL=NO, kinematic split=CENTROID, hourglass=STIFFNESS
0., 1., 1., 0., 0.
*Amplitude, name=load_curve
             0.,              0.,           0.005,              1.,              1.,              1.
** 
** MATERIALS
** 
*Material, name=natural-rubber
*Density
920.,
*Hyperelastic, neo hooke
431034., 2.4e-07
** 
** BOUNDARY CONDITIONS
** 
** Name: encastre Type: Symmetry/Antisymmetry/Encastre
*Boundary
beam-1.encastre, PINNED
** ----------------------------------------------------------------
** 
** STEP: dynamic
** 
*Step, name=dynamic
*Dynamic, Explicit, scale factor=0.5
, 0.05
*Bulk Viscosity
0., 0.
** 
** LOADS
** 
** Name: center-loads   Type: Concentrated force
*Cload, amplitude=load_curve
beam-1.center-loads, 2, 5.
** Name: edge-loads   Type: Concentrated force
*Cload, amplitude=load_curve
beam-1.edge-loads, 2, 2.5
** Name: tip-loads   Type: Concentrated force
*Cload, amplitude=load_curve
beam-1.tip-top, 2, 5.
** 
** OUTPUT REQUESTS
** 
*Restart, write, number interval=1, time marks=NO
** 
** FIELD OUTPUT: F-Output-1
** 
*Output, field, variable=PRESELECT
** 
** HISTORY OUTPUT: H-Output-1
** 
*Output, history, time interval=0.0001
*Energy Output
ALLAE, ALLCD, ALLDMD, ALLFD, ALLIE, ALLKE, ALLPD, ALLSE, ALLVD, ALLWK, ETOTAL
*Incrementation Output
DT, 
** 
** HISTORY OUTPUT: H-Output-2
** 
*Node Output, nset=beam-1.edge-loads
A1, A2, A3, U1, U2, U3, V1, V2
V3
** 
** HISTORY OUTPUT: middle
** 
*Element Output, elset=beam-1.middle
MISES, S11, S12, S13, S22, S23, S33
** 
** HISTORY OUTPUT: H-Output-3
** 
*Element Output, elset=beam-1.tip
E11, E12, E13, E22, E23, E33, MISES, S11, S12, S13, S22, S23, S33
*End Step
